/*--------------------------------*- C++ -*----------------------------------*\
| =========                 |                                                 |
| \\      /  F ield         | OpenFOAM: The Open Source CFD Toolbox           |
|  \\    /   O peration     | Version:  2.3.0                                 |
|   \\  /    A nd           | Web:      www.OpenFOAM.org                      |
|    \\/     M anipulation  |                                                 |
\*---------------------------------------------------------------------------*/
FoamFile
{
    version     2.0;
    format      ascii;
    class       dictionary;
    object      blockMeshDict;
}
// * * * * * * * * * * * * * * * * * * * * * * * * * * * * * * * * * * * * * //

convertToMeters 1;

vertices
(
        (0   0.0    -.1  )//0
        (12.56630039   0.0    -.1  )//1
        (12.56630039   1.3    -.1  )//2
        (0   1.3    -.1  )//3
        (0   0.0     .1  )//4
        (12.56630039   0.0     .1  )//5
        (12.56630039   1.3     .1  )//6
        (0   1.3     .1  )//7
        (12.56630039   2.0  -.1  )//8
        (0   2.0  -.1  )//9
        (0   2.0   .1  )//10
        (12.56630039   2.0   .1  )//11
);

blocks
(
        //hex (0 1 3 2 6 7 9 8) (40 25 30) simpleGrading (1 10.7028 1)
        hex (0 1 2 3 4 5 6 7)   (140 50 1) simpleGrading (1 10 1)
        hex (3 2 8 9 7 6 11 10) (140 50 1) simpleGrading (1 .1 1)
);


//EDGES-START
edges
(
spline 0 1 (
(0.0 0.0 -.1)
(0.00817935355 0.0 -.1)
(0.01635867916 0.0 -.1)
(0.02453809045 0.0 -.1)
(0.0327173695 0.0 -.1)
(0.04089676961 0.0 -.1)
(0.04907618091 0.0 -.1)
(0.05725545064 0.0 -.1)
(0.0654348582 0.0 -.1)
(0.07361414284 0.0 -.1)
(0.08179354668 0.0 -.1)
(0.08997295052 0.0 -.1)
(0.0981522277 0.0 -.1)
(0.1063316017 0.0 -.1)
(0.1145109013 0.0 -.1)
(0.1226902977 0.0 -.1)
(0.1308691949 0.0 -.1)
(0.1390486062 0.0 -.1)
(0.1472280025 0.0 -.1)
(0.1554073989 0.0 -.1)
(0.1635867953 0.0 -.1)
(0.1717662066 0.0 -.1)
(0.179945603 0.0 -.1)
(0.1881249994 0.0 -.1)
(0.1963045001 0.0 -.1)
(0.2044838965 0.0 -.1)
(0.2126632929 0.0 -.1)
(0.2208427042 0.0 -.1)
(0.2290221006 0.0 -.1)
(0.237201497 0.0 -.1)
(0.2453808933 0.0 -.1)
(0.2535603046 0.0 -.1)
(0.261739701 0.0 -.1)
(0.2699190974 0.0 -.1)
(0.2780984938 0.0 -.1)
(0.2862778902 0.0 -.1)
(0.2944572866 0.0 -.1)
(0.3026367128 0.0 -.1)
(0.3108161092 0.0 -.1)
(0.3189955056 0.0 -.1)
(0.327174902 0.0 -.1)
(0.3353531063 0.0 -.1)
(0.3435325027 0.0 -.1)
(0.351711899 0.0 -.1)
(0.3598912954 0.0 -.1)
(0.3680706918 0.0 -.1)
(0.3762500882 0.0 -.1)
(0.3844295144 0.0 -.1)
(0.3926089108 0.0 -.1)
(0.4007883072 0.0 -.1)
(0.4089677036 0.0 -.1)
(0.4171471 0.0 -.1)
(0.4253264964 0.0 -.1)
(0.4335058928 0.0 -.1)
(0.4416852891 0.0 -.1)
(0.4498646855 0.0 -.1)
(0.4580441117 0.0 -.1)
(0.4662235975 0.0 -.1)
(0.4744029939 0.0 -.1)
(0.4825823903 0.0 -.1)
(0.4907617867 0.0 -.1)
(0.4989412129 0.0 -.1)
(0.5071204901 0.0 -.1)
(0.5152999759 0.0 -.1)
(0.5234794021 0.0 -.1)
(0.5316588283 0.0 -.1)
(0.5398381948 0.0 -.1)
(0.548017621 0.0 -.1)
(0.5561969876 0.0 -.1)
(0.5643764138 0.0 -.1)
(0.5725545287 0.0 -.1)
(0.5807340145 0.0 -.1)
(0.5889133811 0.0 -.1)
(0.5970926881 0.0 -.1)
(0.6052721739 0.0 -.1)
(0.6134516001 0.0 -.1)
(0.6216310263 0.0 -.1)
(0.6298103929 0.0 -.1)
(0.637989819 0.0 -.1)
(0.6461691856 0.0 -.1)
(0.6543486118 0.0 -.1)
(0.6625279784 0.0 -.1)
(0.6707074046 0.0 -.1)
(0.6788867712 0.0 -.1)
(0.6870661974 0.0 -.1)
(0.6952456236 0.0 -.1)
(0.7034249902 0.0 -.1)
(0.7116044164 0.0 -.1)
(0.719783783 0.0 -.1)
(0.7279620171 0.0 -.1)
(0.7361413836 0.0 -.1)
(0.7443208098 0.0 -.1)
(0.7525001764 0.0 -.1)
(0.7606796026 0.0 -.1)
(0.7688590288 0.0 -.1)
(0.7770383954 0.0 -.1)
(0.7852178216 0.0 -.1)
(0.7933971882 0.0 -.1)
(0.8015766144 0.0 -.1)
(0.809755981 0.0 -.1)
(0.8179355264 0.0 -.1)
(0.8261147738 0.0 -.1)
(0.8342943192 0.0 -.1)
(0.8424736261 0.0 -.1)
(0.8506531119 0.0 -.1)
(0.8588324785 0.0 -.1)
(0.8670117855 0.0 -.1)
(0.8751912713 0.0 -.1)
(0.8833693862 0.0 -.1)
(0.8915488124 0.0 -.1)
(0.899728179 0.0 -.1)
(0.9079077244 0.0 -.1)
(0.9160869718 0.0 -.1)
(0.9242665172 0.0 -.1)
(0.9324458241 0.0 -.1)
(0.9406253099 0.0 -.1)
(0.9488046765 0.0 -.1)
(0.9569839835 0.0 -.1)
(0.9651635289 0.0 -.1)
(0.9733428955 0.0 -.1)
(0.9815223217 0.0 -.1)
(0.9897016883 0.0 -.1)
(0.9978811145 0.0 -.1)
(1.006060004 0.0 -.1)
(1.014240026 0.0 -.1)
(1.022418976 0.0 -.1)
(1.030598998 0.0 -.1)
(1.038777947 0.0 -.1)
(1.046955943 0.0 -.1)
(1.055135965 0.0 -.1)
(1.063315034 0.0 -.1)
(1.071493983 0.0 -.1)
(1.079674006 0.0 -.1)
(1.087852955 0.0 -.1)
(1.096032977 0.0 -.1)
(1.104212046 0.0 -.1)
(1.112390995 0.0 -.1)
(1.120571017 0.0 -.1)
(1.128749967 0.0 -.1)
(1.136929989 0.0 -.1)
(1.145109057 0.0 -.1)
(1.153288007 0.0 -.1)
(1.161468029 0.0 -.1)
(1.169646978 0.0 -.1)
(1.177827001 0.0 -.1)
(1.18600595 0.0 -.1)
(1.194185019 0.0 -.1)
(1.202365041 0.0 -.1)
(1.210543036 0.0 -.1)
(1.218721986 0.0 -.1)
(1.226902008 0.0 -.1)
(1.235080957 0.0 -.1)
(1.24326098 0.0 -.1)
(1.251440048 0.0 -.1)
(1.259621024 0.0 -.1)
(1.267801046 0.0 -.1)
(1.275982022 0.0 -.1)
(1.284162998 0.0 -.1)
(1.29233098 0.0 -.1)
(1.300511003 0.0 -.1)
(1.308691978 0.0 -.1)
(1.316872954 0.0 -.1)
(1.325052977 0.0 -.1)
(1.333233953 0.0 -.1)
(1.341415048 0.0 -.1)
(1.349596024 0.0 -.1)
(1.357776046 0.0 -.1)
(1.365957022 0.0 -.1)
(1.374125004 0.0 -.1)
(1.38230598 0.0 -.1)
(1.390486002 0.0 -.1)
(1.398666978 0.0 -.1)
(1.406847954 0.0 -.1)
(1.415027976 0.0 -.1)
(1.423208952 0.0 -.1)
(1.431390047 0.0 -.1)
(1.43956995 0.0 -.1)
(1.447738051 0.0 -.1)
(1.455919027 0.0 -.1)
(1.464100003 0.0 -.1)
(1.472280025 0.0 -.1)
(1.480461001 0.0 -.1)
(1.488641977 0.0 -.1)
(1.496822 0.0 -.1)
(1.505002975 0.0 -.1)
(1.513183951 0.0 -.1)
(1.521363974 0.0 -.1)
(1.529531956 0.0 -.1)
(1.537713051 0.0 -.1)
(1.545894027 0.0 -.1)
(1.554074049 0.0 -.1)
(1.562255025 0.0 -.1)
(1.570436001 0.0 -.1)
(1.578616023 0.0 -.1)
(1.586796999 0.0 -.1)
(1.594977975 0.0 -.1)
(1.603157997 0.0 -.1)
(1.611325979 0.0 -.1)
(1.619506955 0.0 -.1)
(1.62768805 0.0 -.1)
(1.635867953 0.0 -.1)
(1.644049048 0.0 -.1)
(1.652230024 0.0 -.1)
(1.660410047 0.0 -.1)
(1.668591022 0.0 -.1)
(1.676771998 0.0 -.1)
(1.684939981 0.0 -.1)
(1.693120003 0.0 -.1)
(1.701300979 0.0 -.1)
(1.709481955 0.0 -.1)
(1.717661977 0.0 -.1)
(1.725842953 0.0 -.1)
(1.734024048 0.0 -.1)
(1.742203951 0.0 -.1)
(1.750385046 0.0 -.1)
(1.758553028 0.0 -.1)
(1.766734004 0.0 -.1)
(1.77491498 0.0 -.1)
(1.783095002 0.0 -.1)
(1.791275978 0.0 -.1)
(1.799456 0.0 -.1)
(1.807636976 0.0 -.1)
(1.815817952 0.0 -.1)
(1.823997974 0.0 -.1)
(1.83217895 0.0 -.1)
(1.840347052 2.220446049e-16 -.1)
(1.848528028 -8.881784197e-16 -.1)
(1.856709003 -7.549517414e-15 -.1)
(1.864889026 4.440892099e-14 -.1)
(1.873070002 3.956835131e-13 -.1)
(1.881250978 -2.321808978e-12 -.1)
(1.889431 -2.045241927e-11 -.1)
(1.897611976 1.210938017e-10 -.1)
(1.905791998 1.056985055e-09 -.1)
(1.913961053 -6.255274076e-09 -.1)
(1.922140956 2.533278973e-07 -.1)
(1.930322051 1.294652975e-06 -.1)
(1.938503027 3.264754923e-06 -.1)
(1.946683049 6.304856925e-06 -.1)
(1.954864025 1.055359007e-05 -.1)
(1.963045001 1.614967914e-05 -.1)
(1.971225023 2.323187073e-05 -.1)
(1.979405999 3.193895827e-05 -.1)
(1.987586021 4.240986891e-05 -.1)
(1.995754957 5.477161903e-05 -.1)
(2.003935099 6.922170724e-05 -.1)
(2.012115955 8.590309881e-05 -.1)
(2.02029705 0.0001049763014 -.1)
(2.028476954 0.0001266017061 -.1)
(2.036658049 0.0001509400026 -.1)
(2.044838905 0.000178151502 -.1)
(2.053019047 0.0002083966974 -.1)
(2.061199903 0.0002418359072 -.1)
(2.069380999 0.0002786277037 -.1)
(2.077548981 0.0003188654955 -.1)
(2.085728884 0.0003628309933 -.1)
(2.093909979 0.0004106232082 -.1)
(2.102091074 0.0004624000867 -.1)
(2.110270977 0.0005183200119 -.1)
(2.118452072 0.0005785409012 -.1)
(2.126632929 0.0006432210212 -.1)
(2.13481307 0.0007125203265 -.1)
(2.142993927 0.0007866013912 -.1)
(2.151175022 0.000865627022 -.1)
(2.159354925 0.0009497599094 -.1)
(2.167522907 0.00103902095 -.1)
(2.175704002 0.001133847982 -.1)
(2.183885098 0.00123427005 -.1)
(2.192065001 0.001340450021 -.1)
(2.200246096 0.001452547032 -.1)
(2.208426952 0.001570702996 -.1)
(2.216607094 0.001695057959 -.1)
(2.224787951 0.001825748011 -.1)
(2.232969046 0.001962912036 -.1)
(2.241148949 0.002106687985 -.1)
(2.249316931 0.002256975975 -.1)
(2.257498026 0.002414378105 -.1)
(2.265678883 0.002578804968 -.1)
(2.273859978 0.002750416985 -.1)
(2.282040119 0.002929392038 -.1)
(2.290220976 0.003115911037 -.1)
(2.298401117 0.003310154891 -.1)
(2.306581974 0.003512304975 -.1)
(2.314763069 0.003722541034 -.1)
(2.322942972 0.003941044211 -.1)
(2.331124067 0.004167994019 -.1)
(2.339292049 0.004403193016 -.1)
(2.347472906 0.004647489171 -.1)
(2.355654001 0.004900640808 -.1)
(2.363833904 0.005162762944 -.1)
(2.372014999 0.005433970131 -.1)
(2.380194902 0.00571437506 -.1)
(2.388375998 0.006004091818 -.1)
(2.396557093 0.006303235888 -.1)
(2.404736996 0.006611924153 -.1)
(2.412918091 0.006930322852 -.1)
(2.421086073 0.007258138154 -.1)
(2.42926693 0.007596595213 -.1)
(2.437448025 0.007945415564 -.1)
(2.445627928 0.008304820396 -.1)
(2.453809023 0.008675023913 -.1)
(2.461988926 0.009056246839 -.1)
(2.470170021 0.009448708035 -.1)
(2.478351116 0.009852585383 -.1)
(2.486531019 0.01026794035 -.1)
(2.494712114 0.0106947897 -.1)
(2.502892971 0.01113316976 -.1)
(2.511060953 0.01158240996 -.1)
(2.519242048 0.01204392035 -.1)
(2.527421951 0.01251703966 -.1)
(2.535603046 0.01300180983 -.1)
(2.543782949 0.0134982504 -.1)
(2.551964045 0.01400652993 -.1)
(2.560144901 0.0145268999 -.1)
(2.568325996 0.01505959034 -.1)
(2.576505899 0.01560486015 -.1)
(2.584686995 0.01616293937 -.1)
(2.592854977 0.01673321053 -.1)
(2.601036072 0.01731766015 -.1)
(2.609215975 0.01791567914 -.1)
(2.61739707 0.01852747053 -.1)
(2.625577927 0.01915315911 -.1)
(2.633758068 0.01979286969 -.1)
(2.641938925 0.02044669911 -.1)
(2.65012002 0.02111475915 -.1)
(2.658299923 0.02179717086 -.1)
(2.666481018 0.02249404043 -.1)
(2.674662113 0.02320547961 -.1)
(2.682830095 0.02393046953 -.1)
(2.691009998 0.02467134967 -.1)
(2.699191093 0.02542709932 -.1)
(2.70737195 0.02619783953 -.1)
(2.715552092 0.0269836504 -.1)
(2.723732948 0.02778463066 -.1)
(2.731914043 0.0286008697 -.1)
(2.740093946 0.02943249047 -.1)
(2.748275042 0.03027956933 -.1)
(2.756455898 0.03114219941 -.1)
(2.764624119 0.03201907128 -.1)
(2.772804022 0.03291295096 -.1)
(2.780985117 0.03382255882 -.1)
(2.789165974 0.03474793956 -.1)
(2.797346115 0.0356891714 -.1)
(2.805526972 0.03664629906 -.1)
(2.813708067 0.03761937097 -.1)
(2.82188797 0.03860849887 -.1)
(2.830069065 0.0396139212 -.1)
(2.838249922 0.04063595086 -.1)
(2.846417904 0.04167329893 -.1)
(2.854598999 0.04272948951 -.1)
(2.862778902 0.0438032411 -.1)
(2.870959997 0.04489488155 -.1)
(2.8791399 0.04600472003 -.1)
(2.887320995 0.04713308066 -.1)
(2.89550209 0.04828004912 -.1)
(2.903681993 0.04944548011 -.1)
(2.911863089 0.05062919855 -.1)
(2.920043945 0.05183102936 -.1)
(2.928224087 0.05305080861 -.1)
(2.936393023 0.05428645015 -.1)
(2.944572926 0.05554157123 -.1)
(2.952754021 0.0568141304 -.1)
(2.960933924 0.05810404941 -.1)
(2.969115019 0.05941163003 -.1)
(2.977296114 0.06073724106 -.1)
(2.985476017 0.06208122894 -.1)
(2.993657112 0.06344397366 -.1)
(3.001837969 0.06482583284 -.1)
(3.01001811 0.06622718275 -.1)
(3.018187046 0.06764618307 -.1)
(3.026366949 0.06908752769 -.1)
(3.034548044 0.07054915279 -.1)
(3.042727947 0.07203093916 -.1)
(3.050909042 0.0735328123 -.1)
(3.059089899 0.07505468279 -.1)
(3.067270994 0.07659644634 -.1)
(3.075450897 0.07815804332 -.1)
(3.083631992 0.0797393471 -.1)
(3.091811895 0.08134028316 -.1)
(3.09999299 0.08296082914 -.1)
(3.108160973 0.08459849656 -.1)
(3.116342068 0.08625839651 -.1)
(3.124521971 0.08793810755 -.1)
(3.132703066 0.08963768184 -.1)
(3.140883923 0.09135718644 -.1)
(3.149065018 0.09309668839 -.1)
(3.157244921 0.09485626221 -.1)
(3.165426016 0.09663598239 -.1)
(3.173605919 0.09843599051 -.1)
(3.181787014 0.1002563983 -.1)
(3.189954996 0.1020945981 -.1)
(3.198136091 0.1039562002 -.1)
(3.206315994 0.105838798 -.1)
(3.214497089 0.1077423021 -.1)
(3.222677946 0.1096668988 -.1)
(3.230859041 0.1116129011 -.1)
(3.239038944 0.1135801971 -.1)
(3.247220039 0.1155690029 -.1)
(3.255400896 0.1175794974 -.1)
(3.263581038 0.1196117029 -.1)
(3.271761894 0.1216657981 -.1)
(3.279930115 0.1237386018 -.1)
(3.288110971 0.1258367002 -.1)
(3.296291113 0.1279570013 -.1)
(3.30447197 0.1300994009 -.1)
(3.312653065 0.1322634965 -.1)
(3.320832968 0.1344490051 -.1)
(3.329014063 0.1366555989 -.1)
(3.33719492 0.1388829052 -.1)
(3.345375061 0.141130805 -.1)
(3.353555918 0.1433987021 -.1)
(3.3617239 0.1456829011 -.1)
(3.369904995 0.147990495 -.1)
(3.378084898 0.1503185034 -.1)
(3.386265993 0.1526674926 -.1)
(3.394447088 0.1550381035 -.1)
(3.402626991 0.1574307978 -.1)
(3.410808086 0.1598462015 -.1)
(3.418988943 0.1622848958 -.1)
(3.427169085 0.1647475064 -.1)
(3.435349941 0.167234093 -.1)
(3.443531036 0.1697441936 -.1)
(3.451699018 0.1722732931 -.1)
(3.459878922 0.1748284996 -.1)
(3.468060017 0.1774052978 -.1)
(3.476241112 0.1800030023 -.1)
(3.484421015 0.1826210022 -.1)
(3.49260211 0.1852587014 -.1)
(3.500782967 0.1879156977 -.1)
(3.508963108 0.1905921996 -.1)
(3.517143965 0.1932888031 -.1)
(3.52532506 0.1960058063 -.1)
(3.533493042 0.1987394989 -.1)
(3.541672945 0.2014987022 -.1)
(3.54985404 0.2042794973 -.1)
(3.558034897 0.2070824057 -.1)
(3.566215992 0.2099078 -.1)
(3.574395895 0.2127556056 -.1)
(3.58257699 0.215625897 -.1)
(3.590756893 0.2185184956 -.1)
(3.598937988 0.2214334011 -.1)
(3.607119083 0.2243705988 -.1)
(3.615287066 0.2273253947 -.1)
(3.623466969 0.2303071022 -.1)
(3.631648064 0.2333108038 -.1)
(3.63982892 0.2363360971 -.1)
(3.648010015 0.2393822074 -.1)
(3.656189919 0.2424484044 -.1)
(3.664371014 0.2455337048 -.1)
(3.672550917 0.2486376017 -.1)
(3.680732012 0.2517591119 -.1)
(3.688913107 0.254897505 -.1)
(3.69709301 0.2580522001 -.1)
(3.705260992 0.2612183094 -.1)
(3.713442087 0.2644053102 -.1)
(3.721622944 0.2676086128 -.1)
(3.729804039 0.2708278894 -.1)
(3.737983942 0.2740632892 -.1)
(3.746165037 0.2773148119 -.1)
(3.75434494 0.2805821896 -.1)
(3.762526035 0.2838656902 -.1)
(3.770706892 0.2871648073 -.1)
(3.778887987 0.290479213 -.1)
(3.787055016 0.2938033938 -.1)
(3.795236111 0.2971470952 -.1)
(3.803416967 0.3005048931 -.1)
(3.811598063 0.3038764 -.1)
(3.819777966 0.3072611988 -.1)
(3.827959061 0.3106588125 -.1)
(3.836138964 0.3140684068 -.1)
(3.844320059 0.3174893856 -.1)
(3.852500916 0.3209210932 -.1)
(3.860682011 0.3243626058 -.1)
(3.868861914 0.3278133869 -.1)
(3.877029896 0.3312672079 -.1)
(3.885210991 0.334734112 -.1)
(3.893392086 0.3382079005 -.1)
(3.901571989 0.3416880965 -.1)
(3.909753084 0.3451736867 -.1)
(3.917932987 0.3486641049 -.1)
(3.926114082 0.3521584868 -.1)
(3.934294939 0.355656296 -.1)
(3.942476034 0.3591566086 -.1)
(3.950655937 0.3626587093 -.1)
(3.958823919 0.3661569059 -.1)
(3.967005014 0.36966151 -.1)
(3.97518611 0.3731670976 -.1)
(3.983366013 0.3766734004 -.1)
(3.991547108 0.3801800907 -.1)
(3.999727964 0.3836869895 -.1)
(4.007907867 0.3871938884 -.1)
(4.016088963 0.3907003999 -.1)
(4.024270058 0.3942053914 -.1)
(4.032450199 0.3977077901 -.1)
(4.040617943 0.4012008905 -.1)
(4.048799038 0.4046944082 -.1)
(4.056980133 0.4081816971 -.1)
(4.065159798 0.4116615951 -.1)
(4.073340893 0.4151327908 -.1)
(4.081521988 0.4185943902 -.1)
(4.089702129 0.4220460057 -.1)
(4.097883224 0.4254877865 -.1)
(4.106063843 0.4289194942 -.1)
(4.114232063 0.4323362112 -.1)
(4.122412205 0.4357481897 -.1)
(4.130592823 0.4391502142 -.1)
(4.138773918 0.4425424933 -.1)
(4.146955013 0.4459244907 -.1)
(4.155135155 0.4492954016 -.1)
(4.163315773 0.4526542127 -.1)
(4.171495914 0.4560000002 -.1)
(4.179665089 0.4593265951 -.1)
(4.18784523 0.4626432955 -.1)
(4.196025848 0.4659439921 -.1)
(4.20420599 0.4692277908 -.1)
(4.212387085 0.4724937975 -.1)
(4.22056818 0.4757417142 -.1)
(4.228735924 0.4789660871 -.1)
(4.236917019 0.4821763039 -.1)
(4.245071888 0.4853571057 -.1)
(4.253228188 0.4885180891 -.1)
(4.261383057 0.4916586876 -.1)
(4.269526005 0.4947735965 -.1)
(4.277657032 0.497862488 -.1)
(4.285774231 0.5009254217 -.1)
(4.293879986 0.5039619803 -.1)
(4.301971912 0.5069720745 -.1)
(4.310039997 0.5099511147 -.1)
(4.318108082 0.5129079223 -.1)
(4.326137066 0.5158287287 -.1)
(4.334167004 0.5187270045 -.1)
(4.342172146 0.5215935111 -.1)
(4.350152016 0.5244277716 -.1)
(4.358106136 0.5272291899 -.1)
(4.366034985 0.5299975276 -.1)
(4.373951912 0.5327365994 -.1)
(4.381844044 0.5354415774 -.1)
(4.389698029 0.5381079912 -.1)
(4.397539139 0.5407438278 -.1)
(4.405343056 0.5433403254 -.1)
(4.413121223 0.5459017754 -.1)
(4.420875072 0.5484285951 -.1)
(4.428589821 0.5509166718 -.1)
(4.436281204 0.553370297 -.1)
(4.443945885 0.5557895899 -.1)
(4.451573849 0.5581709743 -.1)
(4.459164143 0.5605146289 -.1)
(4.466729164 0.5628246069 -.1)
(4.474268913 0.5651012063 -.1)
(4.481758118 0.5673372149 -.1)
(4.489234924 0.5695440769 -.1)
(4.49666214 0.5717111826 -.1)
(4.504051208 0.5738425851 -.1)
(4.511415005 0.5759422779 -.1)
(4.518741131 0.5780069232 -.1)
(4.526041985 0.5800402164 -.1)
(4.53329277 0.58203578 -.1)
(4.540517807 0.5840005875 -.1)
(4.547706127 0.5859311819 -.1)
(4.554855824 0.5878279209 -.1)
(4.561968803 0.5896906257 -.1)
(4.569044113 0.591519475 -.1)
(4.576080799 0.5933148861 -.1)
(4.583093166 0.5950797796 -.1)
(4.590054989 0.5968081951 -.1)
(4.596991062 0.598506391 -.1)
(4.603889942 0.6001716256 -.1)
(4.610752106 0.6018040776 -.1)
(4.617575169 0.6034045219 -.1)
(4.624361038 0.604973197 -.1)
(4.631121159 0.6065136194 -.1)
(4.637832165 0.6080204844 -.1)
(4.644516945 0.6094998717 -.1)
(4.651165009 0.6109495759 -.1)
(4.657773972 0.6123697758 -.1)
(4.664359093 0.6137638092 -.1)
(4.670894146 0.615126729 -.1)
(4.677402973 0.6164640188 -.1)
(4.683875084 0.6177737117 -.1)
(4.690309048 0.6190562248 -.1)
(4.696716785 0.6203141809 -.1)
(4.703089237 0.6215456128 -.1)
(4.709422112 0.6227509975 -.1)
(4.715717793 0.6239305735 -.1)
(4.721988201 0.6250872016 -.1)
(4.728233814 0.6262211204 -.1)
(4.734428883 0.6273279786 -.1)
(4.740599155 0.6284129024 -.1)
(4.746744156 0.6294760704 -.1)
(4.752851009 0.6305155754 -.1)
(4.758921146 0.6315318942 -.1)
(4.764965057 0.632527411 -.1)
(4.770971775 0.633500278 -.1)
(4.77695322 0.6344531178 -.1)
(4.78290987 0.6353858709 -.1)
(4.788827896 0.636297226 -.1)
(4.794710159 0.6371871233 -.1)
(4.800578117 0.6380599141 -.1)
(4.806408882 0.6389120817 -.1)
(4.812201977 0.6397439837 -.1)
(4.817969799 0.6405578256 -.1)
(4.823711872 0.641353786 -.1)
(4.829430103 0.6421322823 -.1)
(4.835110188 0.6428918839 -.1)
(4.84077692 0.6436364055 -.1)
(4.846406937 0.6443626285 -.1)
(4.852012157 0.6450725198 -.1)
(4.857579231 0.6457648277 -.1)
(4.863132954 0.6464428902 -.1)
(4.868649006 0.6471040845 -.1)
(4.874141216 0.6477500796 -.1)
(4.879620075 0.6483827233 -.1)
(4.885060787 0.6489992142 -.1)
(4.89047718 0.6496012211 -.1)
(4.895867825 0.6501891017 -.1)
(4.90123415 0.6507629752 -.1)
(4.906587124 0.6513246298 -.1)
(4.911902905 0.6518713832 -.1)
(4.917192936 0.6524050236 -.1)
(4.922459126 0.6529254913 -.1)
(4.92771101 0.653434515 -.1)
(4.932939053 0.6539309025 -.1)
(4.938127995 0.6544138193 -.1)
(4.943305969 0.6548855901 -.1)
(4.948458195 0.6553454995 -.1)
(4.953598022 0.6557946205 -.1)
(4.95870018 0.6562309265 -.1)
(4.963788986 0.6566568017 -.1)
(4.968852997 0.6570712924 -.1)
(4.973905087 0.6574754715 -.1)
(4.978919029 0.6578677297 -.1)
(4.983920097 0.6582499146 -.1)
(4.988908768 0.658622086 -.1)
(4.993859768 0.6589828134 -.1)
(4.998798847 0.6593338847 -.1)
(5.003725052 0.6596754193 -.1)
(5.008625984 0.6600065827 -.1)
(5.013501167 0.660327673 -.1)
(5.018363953 0.6606395841 -.1)
(5.023201942 0.66094172 -.1)
(5.028028011 0.6612349153 -.1)
(5.032827854 0.6615185142 -.1)
(5.037602901 0.6617925763 -.1)
(5.042378902 0.6620588899 -.1)
(5.047115803 0.6623154283 -.1)
(5.051854134 0.662564218 -.1)
(5.056566238 0.6628040075 -.1)
(5.061253071 0.6630352139 -.1)
(5.065927982 0.6632583141 -.1)
(5.070590019 0.6634734273 -.1)
(5.075226784 0.6636801958 -.1)
(5.079851151 0.6638792753 -.1)
(5.084451199 0.664070189 -.1)
(5.089049816 0.6642541885 -.1)
(5.093624115 0.6644303203 -.1)
(5.098173141 0.6645985842 -.1)
(5.102722168 0.6647601128 -.1)
(5.107245922 0.6649140716 -.1)
(5.111756802 0.665060997 -.1)
(5.116242886 0.6652005911 -.1)
(5.12072897 0.6653336883 -.1)
(5.125191212 0.6654596925 -.1)
(5.129639149 0.665579021 -.1)
(5.134061813 0.6656914949 -.1)
(5.138485909 0.6657977104 -.1)
(5.142883778 0.6658973098 -.1)
(5.147282124 0.6659908295 -.1)
(5.151655197 0.6660776734 -.1)
(5.156015873 0.6661584973 -.1)
(5.160364151 0.666233182 -.1)
(5.164687157 0.6663017273 -.1)
(5.169009209 0.6663643718 -.1)
(5.173318863 0.666421175 -.1)
(5.177605152 0.6664720774 -.1)
(5.181877136 0.6665171981 -.1)
(5.186150074 0.6665567756 -.1)
(5.190396786 0.6665905714 -.1)
(5.194632053 0.666618824 -.1)
(5.198866844 0.6666417122 -.1)
(5.203075886 0.6666591167 -.1)
(5.207273006 0.6666709781 -.1)
(5.211458206 0.6666777134 -.1)
(5.215642929 0.6666792035 -.1)
(5.219801903 0.6666753888 -.1)
(5.223948956 0.6666666269 -.1)
(5.228096008 0.6666526794 -.1)
(5.232217789 0.6666337848 -.1)
(5.236340046 0.6666098833 -.1)
(5.240447998 0.6665810943 -.1)
(5.244533062 0.6665474772 -.1)
(5.248617172 0.6665092111 -.1)
(5.252687931 0.6664661169 -.1)
(5.256746769 0.666418314 -.1)
(5.260794163 0.6663659215 -.1)
(5.264826775 0.6663091183 -.1)
(5.268860817 0.6662474871 -.1)
(5.272870064 0.6661816835 -.1)
(5.27687788 0.6661112905 -.1)
(5.280873775 0.6660366058 -.1)
(5.284858227 0.6659576297 -.1)
(5.28882885 0.6658744216 -.1)
(5.29279995 0.6657868028 -.1)
(5.296758175 0.6656950712 -.1)
(5.300692081 0.665599525 -.1)
(5.304636955 0.6654993892 -.1)
(5.308557987 0.6653956175 -.1)
(5.312466145 0.6652879119 -.1)
(5.316373825 0.6651759148 -.1)
(5.320270061 0.6650599837 -.1)
(5.324152946 0.6649404764 -.1)
(5.328035831 0.6648166776 -.1)
(5.331905842 0.6646891832 -.1)
(5.335763931 0.6645581722 -.1)
(5.339609146 0.6644234061 -.1)
(5.343454838 0.6642845869 -.1)
(5.347287178 0.6641423702 -.1)
(5.351108074 0.6639965773 -.1)
(5.354928017 0.66384691 -.1)
(5.358735085 0.6636937261 -.1)
(5.362530231 0.6635370851 -.1)
(5.366324902 0.663376689 -.1)
(5.370094776 0.6632136106 -.1)
(5.373878002 0.6630461216 -.1)
(5.377635002 0.6628760099 -.1)
(5.381392002 0.662702024 -.1)
(5.385137081 0.6625249982 -.1)
(5.38888216 0.6623442173 -.1)
(5.392613888 0.6621602774 -.1)
(5.396346092 0.6619727015 -.1)
(5.400065899 0.6617820263 -.1)
(5.403772831 0.6615883708 -.1)
(5.407466888 0.6613919139 -.1)
(5.4111619 0.6611915827 -.1)
(5.414855957 0.6609879136 -.1)
(5.418538094 0.6607812047 -.1)
(5.422207832 0.6605718136 -.1)
(5.425877094 0.660358727 -.1)
(5.429533958 0.6601428986 -.1)
(5.433177948 0.6599243283 -.1)
(5.436834812 0.6597015262 -.1)
(5.440465927 0.6594768167 -.1)
(5.444097996 0.6592485905 -.1)
(5.44771719 0.6590179205 -.1)
(5.451335907 0.6587836742 -.1)
(5.454956055 0.6585462093 -.1)
(5.458549023 0.6583070755 -.1)
(5.462155819 0.6580638289 -.1)
(5.465750217 0.657818079 -.1)
(5.469330788 0.6575701237 -.1)
(5.472912788 0.6573188901 -.1)
(5.476480961 0.6570655107 -.1)
(5.480051041 0.6568089128 -.1)
(5.483606815 0.6565499902 -.1)
(5.487163067 0.6562882066 -.1)
(5.490705967 0.6560242772 -.1)
(5.494249821 0.655757308 -.1)
(5.497794151 0.6554874182 -.1)
(5.50132513 0.6552153826 -.1)
(5.504844189 0.6549414992 -.1)
(5.508361816 0.6546648145 -.1)
(5.511880875 0.6543850899 -.1)
(5.515387058 0.6541035771 -.1)
(5.518892765 0.6538193226 -.1)
(5.522386074 0.6535329819 -.1)
(5.52587986 0.6532440186 -.1)
(5.529359818 0.6529530883 -.1)
(5.532841206 0.6526594758 -.1)
(5.536322117 0.6523628831 -.1)
(5.539791107 0.6520646214 -.1)
(5.543259144 0.6517633796 -.1)
(5.546714783 0.6514605284 -.1)
(5.550169945 0.6511546969 -.1)
(5.55362606 0.6508461237 -.1)
(5.557068825 0.6505357027 -.1)
(5.560500145 0.6502236128 -.1)
(5.563942909 0.6499075294 -.1)
(5.567374229 0.649589777 -.1)
(5.570792198 0.6492702961 -.1)
(5.574222088 0.6489468813 -.1)
(5.577640057 0.6486216784 -.1)
(5.581046104 0.6482949257 -.1)
(5.584451199 0.647965312 -.1)
(5.58785677 0.6476327777 -.1)
(5.591261864 0.6472976208 -.1)
(5.594655037 0.6469606757 -.1)
(5.598034859 0.6466224194 -.1)
(5.601428032 0.6462801099 -.1)
(5.604807854 0.6459364295 -.1)
(5.608189106 0.6455898881 -.1)
(5.611557007 0.6452419758 -.1)
(5.614923954 0.6448916197 -.1)
(5.618291855 0.6445385218 -.1)
(5.621646881 0.6441841125 -.1)
(5.625014782 0.643825829 -.1)
(5.628357887 0.6434674859 -.1)
(5.631712914 0.6431055069 -.1)
(5.635056019 0.6427422166 -.1)
(5.63839817 0.6423764825 -.1)
(5.641740799 0.6420081854 -.1)
(5.64507103 0.641638875 -.1)
(5.648400784 0.6412671804 -.1)
(5.651731014 0.6408929825 -.1)
(5.655048847 0.6405180097 -.1)
(5.658366203 0.6401404142 -.1)
(5.661684036 0.6397604942 -.1)
(5.665000916 0.63937819 -.1)
(5.668305874 0.638995111 -.1)
(5.671610832 0.6386095285 -.1)
(5.674915791 0.6382216811 -.1)
(5.678207874 0.6378329992 -.1)
(5.681512833 0.6374405026 -.1)
(5.684804916 0.6370471716 -.1)
(5.688086033 0.6366530061 -.1)
(5.691378117 0.6362550855 -.1)
(5.694657803 0.63585639 -.1)
(5.697937012 0.6354554296 -.1)
(5.701217175 0.6350522041 -.1)
(5.704483986 0.6346483231 -.1)
(5.707764149 0.6342406273 -.1)
(5.71103096 0.6338322163 -.1)
(5.714285851 0.63342309 -.1)
(5.717554092 0.6330102086 -.1)
(5.720808029 0.6325966716 -.1)
(5.724074841 0.6321793795 -.1)
(5.727316856 0.6317631006 -.1)
(5.730572224 0.6313430071 -.1)
(5.733827114 0.6309207082 -.1)
(5.73706913 0.6304978728 -.1)
(5.740311146 0.6300727725 -.1)
(5.743553162 0.629645586 -.1)
(5.746795177 0.6292163134 -.1)
(5.750024796 0.6287863851 -.1)
(5.753253937 0.6283543706 -.1)
(5.756495953 0.6279184818 -.1)
(5.759713173 0.6274837852 -.1)
(5.762942791 0.627045393 -.1)
(5.766171932 0.6266046762 -.1)
(5.769389153 0.6261637211 -.1)
(5.772605896 0.6257203817 -.1)
(5.775823116 0.6252750754 -.1)
(5.77903986 0.6248276234 -.1)
(5.78225708 0.6243780255 -.1)
(5.785461903 0.6239280105 -.1)
(5.788665771 0.6234759092 -.1)
(5.791882992 0.6230198741 -.1)
(5.795086861 0.6225636005 -.1)
(5.79829216 0.6221051216 -.1)
(5.801484108 0.6216464043 -.1)
(5.804687977 0.6211838126 -.1)
(5.807879925 0.6207208037 -.1)
(5.811071873 0.6202558279 -.1)
(5.814263821 0.6197888255 -.1)
(5.817454815 0.6193196177 -.1)
(5.820646763 0.6188483834 -.1)
(5.823839188 0.6183751822 -.1)
(5.827017784 0.6179018021 -.1)
(5.830210209 0.6174244285 -.1)
(5.833390236 0.616946876 -.1)
(5.836568832 0.6164674759 -.1)
(5.839747906 0.6159858704 -.1)
(5.842926979 0.6155024171 -.1)
(5.846107006 0.6150168777 -.1)
(5.849286079 0.6145293713 -.1)
(5.852453232 0.6140416861 -.1)
(5.855631828 0.6135501862 -.1)
(5.858798981 0.6130586863 -.1)
(5.861965179 0.6125652194 -.1)
(5.865145206 0.6120678186 -.1)
(5.868310928 0.6115704179 -.1)
(5.871478081 0.6110711098 -.1)
(5.874631882 0.6105716825 -.1)
(5.877799034 0.6100683808 -.1)
(5.880966187 0.6095632911 -.1)
(5.884119987 0.6090580821 -.1)
(5.887286186 0.608549118 -.1)
(5.890439987 0.6080402136 -.1)
(5.89360714 0.6075273156 -.1)
(5.896760941 0.6070144773 -.1)
(5.899916172 0.6064999104 -.1)
(5.903069019 0.6059833765 -.1)
(5.906223774 0.6054648757 -.1)
(5.909378052 0.6049445868 -.1)
(5.912531853 0.6044223905 -.1)
(5.915686131 0.6038982868 -.1)
(5.918839931 0.6033722758 -.1)
(5.921981812 0.6028466225 -.1)
(5.925136089 0.602316916 -.1)
(5.92828989 0.6017854214 -.1)
(5.93143177 0.6012539864 -.1)
(5.934586048 0.6007187963 -.1)
(5.937726974 0.600183785 -.1)
(5.940868855 0.5996469855 -.1)
(5.944023132 0.5991061926 -.1)
(5.947165012 0.5985656977 -.1)
(5.950305939 0.5980234146 -.1)
(5.953447819 0.5974792242 -.1)
(5.956602097 0.5969310999 -.1)
(5.959743023 0.5963832736 -.1)
(5.962884903 0.5958337188 -.1)
(5.966026783 0.595282197 -.1)
(5.96916914 0.5947288871 -.1)
(5.972310066 0.5941739082 -.1)
(5.975450993 0.593617022 -.1)
(5.978592873 0.5930582881 -.1)
(5.981735229 0.5924978256 -.1)
(5.984876156 0.5919355154 -.1)
(5.988018036 0.591371417 -.1)
(5.991158962 0.5908054709 -.1)
(5.994300842 0.5902377963 -.1)
(5.997443199 0.5896682739 -.1)
(6.000584126 0.589097023 -.1)
(6.003726006 0.5885239244 -.1)
(6.006866932 0.5879489779 -.1)
(6.010008812 0.587372303 -.1)
(6.013151169 0.5867937803 -.1)
(6.016292095 0.5862135887 -.1)
(6.019433022 0.5856317282 -.1)
(6.022562981 0.5850502849 -.1)
(6.025703907 0.5844647884 -.1)
(6.028845787 0.5838776827 -.1)
(6.03198719 0.5832887888 -.1)
(6.03512907 0.582698226 -.1)
(6.038269997 0.5821059942 -.1)
(6.041411877 0.5815119743 -.1)
(6.044554234 0.5809165239 -.1)
(6.04769516 0.5803192258 -.1)
(6.05083704 0.5797203779 -.1)
(6.053977966 0.5791199207 -.1)
(6.057119846 0.5785176754 -.1)
(6.060262203 0.5779141188 -.1)
(6.06340313 0.5773087144 -.1)
(6.066532135 0.5767043233 -.1)
(6.069674015 0.5760958195 -.1)
(6.072814941 0.5754858255 -.1)
(6.075956821 0.5748742819 -.1)
(6.079098225 0.5742611885 -.1)
(6.082240105 0.573646605 -.1)
(6.085381985 0.5730304718 -.1)
(6.088522911 0.5724127889 -.1)
(6.091664791 0.5717936158 -.1)
(6.094806194 0.5711727738 -.1)
(6.097948074 0.5705506206 -.1)
(6.101089001 0.5699266791 -.1)
(6.104230881 0.5693014264 -.1)
(6.107373238 0.5686743855 -.1)
(6.110501766 0.5680484772 -.1)
(6.113643169 0.5674185157 -.1)
(6.116785049 0.5667868257 -.1)
(6.119925976 0.5661537051 -.1)
(6.123067856 0.5655189753 -.1)
(6.126208782 0.5648826957 -.1)
(6.129351139 0.564244926 -.1)
(6.132493019 0.5636054873 -.1)
(6.135633945 0.562964499 -.1)
(6.138775826 0.5623219013 -.1)
(6.141917229 0.5616778135 -.1)
(6.145059109 0.5610321164 -.1)
(6.148200989 0.56038481 -.1)
(6.151341915 0.5597358942 -.1)
(6.154470921 0.5590881109 -.1)
(6.157612801 0.5584359765 -.1)
(6.160754204 0.5577824116 -.1)
(6.163896084 0.5571271777 -.1)
(6.16703701 0.5564703941 -.1)
(6.17017889 0.5558120012 -.1)
(6.17332077 0.5551521182 -.1)
(6.176462173 0.5544906259 -.1)
(6.179604053 0.5538275242 -.1)
(6.18274498 0.5531628132 -.1)
(6.18588686 0.5524966121 -.1)
(6.189027786 0.5518286824 -.1)
(6.192170143 0.5511593223 -.1)
(6.195312023 0.5504884124 -.1)
(6.198441029 0.5498185158 -.1)
(6.201581955 0.5491443872 -.1)
(6.204723835 0.5484688282 -.1)
(6.207865238 0.547791481 -.1)
(6.211007118 0.5471128225 -.1)
(6.214148998 0.5464323759 -.1)