/*--------------------------------*- C++ -*----------------------------------*\
| =========                 |                                                 |
| \\      /  F ield         | OpenFOAM: The Open Source CFD Toolbox           |
|  \\    /   O peration     | Version:  3.0.1                                 |
|   \\  /    A nd           | Web:      www.OpenFOAM.org                      |
|    \\/     M anipulation  |                                                 |
\*---------------------------------------------------------------------------*/
FoamFile
{
    version     2.0;
    format      ascii;
    class       volScalarField;
    location    "constant";
    object      yWall;
}
// * * * * * * * * * * * * * * * * * * * * * * * * * * * * * * * * * * * * * //

dimensions      [0 1 0 0 0 0 0];

internalField   nonuniform List<scalar> 
14000
(
0.00329846574773673
0.0032984657481278
0.00329846574782696
0.00329846574789716
0.0032984657480701
0.00329846574764309
0.0032984657478975
0.0032984657484593
0.00329846574711258
0.00329846574776647
0.00329846574839242
0.00329846574841287
0.00329846574588592
0.00329846575026207
0.00329846572330235
0.00329846577224579
0.00329846574649943
0.00329846575075034
0.00329846574487705
0.00329846574823132
0.00329846576371629
0.00329842989299044
0.00329810804024582
0.00329691965981062
0.00329420965102127
0.00328927659632227
0.0032813832375984
0.00326973199324203
0.00325361749290381
0.00323215918724567
0.00320475265891983
0.00317077769837521
0.00312956182767034
0.00308071678445806
0.00302415487937894
0.00295981537918098
0.00288730741907349
0.0028080934962293
0.00272127841857468
0.00262893862680893
0.00253044867518817
0.0024313571454647
0.00233123689753261
0.00223440501872787
0.00214293544559181
0.00205789982120931
0.00198007759252479
0.00191062859672938
0.00184931521226436
0.00179670709363557
0.00175194866827643
0.0017141381267016
0.00168330143154687
0.00165803515395571
0.00163807445887431
0.00162295210896237
0.0016129217510276
0.00160793947459382
0.00160785919288019
0.00161254674571568
0.00162184245169033
0.00163556815031326
0.00165353323490062
0.00167553894786238
0.00170144046515518
0.00173092516638192
0.00176391648330091
0.00180022941269037
0.00183982759698262
0.00188214321826893
0.00192753442055291
0.0019753583851733
0.00202605555886495
0.00207847370378086
0.00213318975599345
0.00218938370813201
0.00224714654949347
0.00230550974640782
0.00236511678938212
0.00242528052625186
0.00248511166969738
0.0025453356492116
0.00260500428053131
0.00266399049062358
0.00272180587355236
0.00277871962569921
0.0028334537971961
0.00288653362646277
0.00293745346905926
0.00298569059078036
0.00303151198756348
0.00307395917831148
0.00311329403591327
0.0031491885708864
0.00318143618946896
0.00320989150002026
0.00323437645566608
0.00325487507645901
0.00327136375080529
0.00328378413180033
0.0032922220609384
0.00329674473589023
0.00329815652107403
0.00329841503074117
0.00329845859335291
0.00329846464365513
0.00329846565013758
0.00329846570406592
0.0032984657783771
0.00329846573480162
0.00329846575880342
0.00329846572922207
0.00329846578514151
0.00329846569221932
0.00329846579820014
0.003298465696583
0.00329846579799735
0.00329846572707142
0.00329846574124057
0.00329846578832042
0.00329846569315145
0.00329846580313792
0.0032984656885355
0.00329846578998145
0.00329846572893395
0.00329846575772211
0.00329846574109803
0.00329846574314964
0.00329846574631233
0.0032984657756991
0.00329846573325123
0.00329846574521557
0.0032984657472988
0.00329846572887251
0.00329846577492792
0.00329846575090225
0.00329846573860627
0.0032984657375119
0.00329846573515135
0.00329846576455157
0.0100541698587987
0.0100541784887674
0.010054195747443
0.0100542216360498
0.0100542561540557
0.0100542993008374
0.010054351077719
0.0100544114833398
0.0100544805164307
0.0100545581812842
0.0100546444732657
0.0100547393919263
0.0100548429393234
0.0100549551195044
0.0100550759314408
0.0100552054189096
0.0100553434059311
0.0100554900915165
0.0100556453953187
0.0100558093408481
0.0100559819726294
0.0100559221755144
0.0100545911503637
0.0100503307398889
0.0100414272708323
0.0100261770446679
0.0100028920200002
0.00996984670486986
0.00992551277414098
0.0098682574191081
0.00979664340048241
0.00970949158863637
0.00960554355904308
0.00948375203036126
0.00934348266475019
0.00918432160399729
0.00900564158409217
0.00880803810260868
0.0085912237260703
0.00835634507961047
0.00810356987247866
0.00783722095257147
0.00755966322174092
0.00727625299423687
0.00699243005190499
0.00671325742370464
0.00644350904268949
0.00618833291498187
0.00595157567195359
0.00573733668567996
0.00554783058724716
0.0053840336184743
0.00524701216424511
0.00513540453086765
0.0050478814316066
0.00498239931898945
0.00493765768519963
0.0049124950563962
0.004905765571035
0.0049164358732028
0.00494359753840791
0.00498639696148344
0.00504399902639078
0.00511563442556661
0.00520056676716449
0.00529792964953618
0.00540725444420167
0.00552785921823859
0.00565905886803145
0.00579977862813968
0.00594977728476323
0.00610771861686358
0.00627305443943151
0.00644394942243527
0.00662008169177912
0.00679982892985845
0.00698235983249711
0.0071663156278687
0.00735136666661852
0.0075359870250893
0.00771911349284926
0.00790049098117292
0.00807870898387069
0.00825307966317103
0.00842279745613545
0.00858722585669
0.00874523588522302
0.00889672738172184
0.009040802336212
0.00917688171829315
0.00930454060901247
0.00942298389896098
0.009532165280777
0.0096315774854771
0.00972088565267294
0.0097998065952357
0.00986815437255309
0.00992593276791165
0.00997305877421247
0.0100095175171664
0.01003549418183
0.0100511380649777
0.0100578305337918
0.0100594543306938
0.0100595298336006
0.0100592930973883
0.0100590085161737
0.0100587250411452
0.0100584492017253
0.0100581818121541
0.0100579230436351
0.0100576728177972
0.0100574313939992
0.0100571983073196
0.0100569741047481
0.0100567583102653
0.010056551361454
0.0100563529281288
0.0100561630608883
0.0100559820093211
0.0100558093073287
0.0100556454919211
0.0100554900457797
0.0100553434384554
0.0100552053572995
0.0100550759408875
0.0100549551233737
0.0100548429316147
0.0100547393787111
0.0100546445246353
0.0100545581990521
0.0100544805280002
0.0100544114913977
0.0100543510493747
0.0100542993298955
0.0100542561724571
0.0100542216350576
0.0100541957368909
0.0100541784708446
0.0100541698762774
0.0171349115130287
0.0171349262204722
0.017134955633929
0.0171349997547787
0.017135058582293
0.0171351321158768
0.0171352203569346
0.0171353233033959
0.0171354409545724
0.0171355733151786
0.0171357203786658
0.0171358821446532
0.017136058617939
0.0171362497991331
0.0171364557119261
0.0171366763595701
0.0171369115423529
0.017137161529783
0.0171374262116253
0.017137705615071
0.0171379998235425
0.0171378929300493
0.0171356060810893
0.0171283251886055
0.0171131543405768
0.0170872259705353
0.0170477103345638
0.0169917279728334
0.0169167257619791
0.0168200246622373
0.0166992182567679
0.0165523854326537
0.0163774924425169
0.0161728213984234
0.0159373307968796
0.0156703894525659
0.0153711158748918
0.0150402574812451
0.0146777658613364
0.0142851786113078
0.0138632417428344
0.0134177418971573
0.0129531562676393
0.0124771829041063
0.0119984076940479
0.0115250791872418
0.0110650511241169
0.0106266360007139
0.0102167531801203
0.00984246925543514
0.00950864831296665
0.00921813913609299
0.00897341639829805
0.00877356949628926
0.00861665894621885
0.0084993689730883
0.00841904560632817
0.00837350774411451
0.00836062761379887
0.00837844526964707
0.00842524249129357
0.00849940136017337
0.00859934226356641
0.0087236307458645
0.00887082057433944
0.00903942834130913
0.00922850393966357
0.00943680364570424
0.0096629431742489
0.00990530391475742
0.0101630654418341
0.0104341707590697
0.0107172282845779
0.0110096110453023
0.0113103288485514
0.0116169005741193
0.0119277458198734
0.0122409250804878
0.0125554957319333
0.0128690332309437
0.0131800358452221
0.013487703006712
0.0137898977755516
0.0140854218249344
0.014373008307021
0.0146513908265448
0.0149190019449069
0.0151754496938381
0.0154192795913657
0.015649609144916
0.0158655622242163
0.016066004954627
0.0162507479559302
0.0164189637748272
0.0165700963408144
0.0167036642369904
0.0168193751856265
0.016917229518635
0.016997072406552
0.0170588936153824
0.017102995657467
0.017129626298944
0.0171410979268013
0.0171439059876254
0.0171440442365629
0.0171436426037773
0.0171431577766453
0.0171426747447535
0.0171422046022007
0.0171417489300673
0.0171413079054619
0.0171408814754621
0.0171404699895138
0.0171400728112423
0.0171396906414104
0.017139322939307
0.0171389701773984
0.017138632042778
0.0171383084503563
0.0171379998602266
0.017137705594598
0.0171374263374923
0.0171371614932338
0.0171369115688519
0.0171366762833889
0.0171364557051218
0.0171362498118266
0.0171360586066233
0.0171358821235267
0.0171357204480455
0.0171355733551182
0.0171354409755516
0.0171353233179007
0.0171352203212861
0.0171351321472453
0.0171350586117706
0.0171349997592695
0.0171349556228077
0.0171349261985593
0.0171349115316309
0.0245563296380749
0.0245563507154015
0.0245563928684423
0.024556456098745
0.0245565404053745
0.0245566457877616
0.0245567722474016
0.0245569197814786
0.0245570883899004
0.0245572780778455
0.0245574888367476
0.0245577206662944
0.0245579735741461
0.0245582475573611
0.0245585426653294
0.0245588588594166
0.024559195914209
0.02455955417368
0.0245599334960474
0.0245603339124666
0.0245607555470802
0.0245605992928204
0.0245573106772146
0.0245468642159085
0.0245251251480161
0.0244880064258565
0.0244314821851938
0.0243514641634481
0.0242443256978495
0.0241062924539213
0.0239339427853822
0.0237245791505484
0.0234753568364393
0.0231838564220565
0.0228486109167764
0.0224687633304824
0.0220431695344054
0.02157273478876
0.0210576693767638
0.0204999184945805
0.0199008447332381
0.0192677506788644
0.018607337438731
0.017929737194849
0.0172468197823416
0.0165701590836421
0.0159108203808135
0.0152804061578312
0.0146890436203154
0.0141468888562625
0.0136615941688099
0.0132379974287827
0.0128800723144729
0.0125874401192156
0.0123575495032824
0.012185770934692
0.012068025315601
0.0120010603961694
0.0119817139251397
0.0120070462644323
0.0120744812749863
0.0121815899651368
0.0123260027427773
0.0125055804731037
0.0127181225210989
0.0129614986079882
0.0132342471962469
0.0135345333240442
0.013860233213935
0.0142091683527461
0.0145798990608726
0.0149696231260647
0.0153760539605414
0.0157957522704913
0.0162270174120172
0.0166664777015858
0.0171117652109254
0.017560341238771
0.0180106131647597
0.0184592190992117
0.0189042036823372
0.0193441878524347
0.0197762781030614
0.0201987403744733
0.020609825749106
0.0210076045811389
0.0213900548929317
0.0217564752033843
0.0221048285971691
0.0224339155817682
0.0227423847611319
0.0230287498274415
0.0232926697040284
0.0235329815847172
0.0237488975065783
0.0239397281053685
0.0241050697998355
0.0242449190916336
0.0243590455743354
0.0244474440205296
0.0245105396811666
0.0245486834167909
0.0245651633871835
0.0245692126178331
0.0245694166291303
0.0245688421657634
0.0245681474586611
0.0245674552681919
0.0245667814743522
0.024566128460558
0.0245654964110922
0.0245648852990394
0.024564295569029
0.0245637264036948
0.024563178666896
0.0245626517478609
0.0245621461578968
0.0245616616001232
0.0245611978486668
0.0245607555839587
0.0245603339053632
0.0245599336529087
0.0245595541464177
0.0245591959346294
0.0245588587677277
0.0245585426416819
0.0245582475792522
0.0245579735590338
0.0245577206368651
0.0245574889251527
0.0245572781409432
0.0245570884207329
0.0245569198027338
0.0245567722039925
0.0245566458217026
0.024556540446476
0.0245564561089323
0.0245563928566672
0.0245563506892365
0.0245563296579459
0.032334815226695
0.0323348429803819
0.0323348984859457
0.032334981745117
0.0323350927567421
0.0323352315202746
0.0323353980373131
0.0323355923042578
0.032335814321628
0.0323360640951121
0.0323363416140172
0.0323366468780986
0.0323369798980051
0.0323373406671302
0.0323377292615673
0.0323381455994292
0.0323385894274548
0.032339061168296
0.0323395606468646
0.0323400878985872
0.0323406430902322
0.0323404351007128
0.0323360965349299
0.0323223322798369
0.0322937092136164
0.0322448622661433
0.0321705120797635
0.0320653036651967
0.0319244853624686
0.0317431352803741
0.0315167678944213
0.0312418723050514
0.0309147543804341
0.0305322598659087
0.030092476237195
0.0295943104994566
0.0290363445344504
0.0284196485445762
0.0277447067002188
0.0270138906263607
0.0262292126424786
0.0253995580008303
0.0245339620563488
0.023645101425466
0.0227482834082818
0.0218585627853216
0.02099036548444
0.0201587334068942
0.0193771516776809
0.0186590075765303
0.018014879323443
0.0174516982170704
0.0169750166282398
0.0165850332633058
0.016278565002634
0.0160496122040056
0.0158925999880194
0.0158031526702913
0.0157770219823127
0.0158102385663722
0.0158993239562952
0.0160409956405678
0.0162320527251928
0.0164696149105165
0.0167506873080192
0.0170724615837875
0.0174329378574096
0.0178296606690398
0.0182597289162195
0.0187203806856096
0.0192095231298498
0.0197235764452108
0.0202593122459332
0.0208124457339504
0.0213805282537319
0.0219592579466036
0.0225454406572436
0.0231359128687622
0.0237283981370954
0.0243185536532096
0.024903950637299
0.0254826014021139
0.0260508211093122
0.0266063139587255
0.0271468262492477
0.0276697321334286
0.0281725349350817
0.0286542075213286
0.029112102797927
0.0295446893856679
0.0299501169555102
0.0303265307109975
0.0306734299865456
0.0309893005700647
0.0312731114374412
0.0315239552107787
0.0317413117022277
0.0319251733273306
0.0320752303636134
0.0321914828816402
0.0322744846953006
0.032324694682332
0.0323464237066916
0.0323517738001878
0.0323520467374232
0.0323512911277818
0.0323503764431734
0.0323494650304039
0.0323485777873914
0.0323477179369532
0.0323468856719728
0.0323460809920613
0.0323453044424532
0.0323445550146641
0.0323438337455928
0.0323431399485966
0.0323424741781523
0.0323418361519301
0.0323412254980358
0.0323406431275326
0.0323400879051664
0.0323395608365628
0.0323390611503924
0.0323385894417677
0.0323381454912223
0.0323377292204755
0.0323373406986045
0.0323369798788989
0.0323366468399548
0.0323363417225285
0.0323360641823926
0.0323358143627753
0.0323355923325825
0.0323353979856555
0.0323352315570764
0.0323350928100429
0.0323349817612181
0.0323348984734252
0.0323348429496802
0.0323348152479976
0.040487547891703
0.0404875826429731
0.0404876521434893
0.0404877563951806
0.0404878953966627
0.0404880691474083
0.0404882776491327
0.0404885208974119
0.0404887988933918
0.040489111643321
0.040489459134264
0.0404898413660437
0.0404902583524279
0.0404907100830313
0.0404911966616823
0.0404917179618719
0.0404922737001507
0.0404928643823315
0.04049348979815
0.0404941499876383
0.0404948451621817
0.0404945829483305
0.0404891439221071
0.040471902280411
0.0404360641156538
0.040374924907485
0.0402818915778564
0.0401502815749656
0.0399741642051002
0.0397474150117233
0.0394644334974691
0.0391208564706747
0.038712099774972
0.038234239175912
0.037684895374149
0.0370627283205927
0.0363660333168682
0.0355960532043407
0.0347535604847804
0.0338413733516019
0.0328621867105921
0.0318265417396092
0.0307459218827259
0.0296356674752445
0.0285146866238006
0.0274016804711615
0.0263145948162255
0.0252720724035546
0.0242911158713545
0.0233884959303129
0.0225778590658497
0.021868334647961
0.0212671331491151
0.020775067675435
0.0203882973698793
0.0200993897818098
0.0199012013483402
0.0197881785717765
0.0197549341056073
0.0197964179891711
0.0199082045583668
0.0200861151210515
0.0203260759401788
0.0206244286885801
0.0209773443571627
0.0213813039052309
0.0218337421384952
0.0223315528694755
0.0228710192289443
0.0234487694318556
0.0240620241302925
0.0247063901304721
0.0253776502089852
0.0260706361167083
0.0267821136323591
0.0275068074667383
0.0282406571087045
0.0289798456504624
0.0297213787386749
0.0304598861561587
0.0311924438681936
0.0319164252118954
0.0326273167023967
0.0333222336644112
0.033998393550004
0.034652440329703
0.035281380585889
0.0358838452857688
0.0364565479273557
0.0369976094483439
0.0375046562076728
0.0379754476131451
0.0384093154548844
0.0388043772463233
0.0391593472034503
0.0394730894166937
0.0397449615060759
0.0399749515719182
0.040162666710888
0.0403081125712943
0.0404119776766625
0.0404748341024966
0.0405020646130793
0.0405087781482584
0.0405091233278563
0.0405081778561469
0.0405070326107171
0.0405058914276827
0.0405047804662459
0.0405037038273219
0.0405026617139965
0.040501654152879
0.0405006817955745
0.0404997434317277
0.0404988402819127
0.0404979715772622
0.0404971379202341
0.0404963390412449
0.040495574417077
0.040494845200167
0.0404941500081912
0.0404934900226506
0.0404928643738246
0.0404922737083501
0.0404917178360658
0.040491196602534
0.0404907101244911
0.0404902583291146
0.0404898413187525
0.04048945926403
0.040489111755855
0.0404887989453365
0.0404885209331372
0.0404882775887038
0.0404880691873893
0.0404878954627692
0.040487756417419
0.0404876521301173
0.0404875826074313
0.0404875479146184
0.0490325338087556
0.0490325758942873
0.0490326600630942
0.0490327863173213
0.0490329546553404
0.0490331650766394
0.0490334175830649
0.0490337121693268
0.049034048837211
0.0490344275935822
0.0490348484231395
0.0490353113257722
0.0490358163185031
0.0490363633870555
0.0490369526640485
0.0490375839769856
0.0490382570096795
0.0490389723558675
0.0490397297681245
0.0490405292914513
0.0490413711839308
0.0490410521367746
0.049034459706256
0.0490135733894143
0.0489701730452839
0.0488961502927562
0.0487835351722471
0.0486242537578828
0.0484111396456809
0.0481368080680228
0.0477944899606956
0.0473789289434754
0.0468846081583478
0.0463067964593669
0.0456426254193138
0.0448904962145304
0.044048404101123
0.0431177727276926
0.0420996774929209
0.0409974044281409
0.0398143647364196
0.0385628336017582
0.0372568611819697
0.0359145779796667
0.0345586650479352
0.0332116442430875
0.0318951492507077
0.03063159469863
0.0294416688964141
0.0283456869972995
0.0273605122095592
0.0264975798540382
0.0257658401597742
0.0251667552419559
0.0246957973120378
0.0243440339618757
0.0241026769684095
0.0239649381804994
0.0239242359280658
0.0239743869196873
0.0241099719180638
0.0243258720529249
0.0246170978973488
0.0249791750001043
0.0254073991891413
0.0258975065071407
0.0264463386588793
0.027050107214848
0.0277042397180058
0.028404726047554
0.0291480662782458
0.0299290155786256
0.0307423193632142
0.0315818849275424
0.0324436538285565
0.0333213313344403
0.0342099486876902
0.035105004969654
0.0360027527248546
0.0368967452839104
0.0377835400476499
0.0386598400464719
0.0395202636978631
0.0403613090594669
0.041179639415426
0.0419711331554963
0.0427322766612469
0.0434613422300161
0.0441543732590092
0.0448091263710362
0.0454226792273102
0.045992387113308
0.0465174060601645
0.0469954676098108
0.0474250189596915
0.047804684657128
0.0481336942650765
0.0484120313437939
0.0486392157793629
0.0488152590811734
0.0489409909411332
0.0490171020706126
0.0490500986997791
0.0490582412718648
0.0490586621701055
0.0490575177011724
0.0490561308024576
0.0490547487936497
0.0490534033504962
0.049052099492402
0.0490508374344523
0.0490496172306707
0.0490484396451596
0.0490473032542789
0.0490462094736456
0.04904515744525
0.0490441478248325
0.0490431803534368
0.0490422543511084
0.0490413712229017
0.0490405293262481
0.0490397300295283
0.0490389723567534
0.0490382570117887
0.0490375838324184
0.0490369525862262
0.0490363634389141
0.0490358162907627
0.0490353112688778
0.0490348485753816
0.0490344277324758
0.0490340489004616
0.0490337122127998
0.0490334175133039
0.0490331651201517
0.0490329547348908
0.0490327863459224
0.0490326600487558
0.0490325758535784
0.0490325338334825
0.0579886454846663
0.0579886952573367
0.0579887948001688
0.0579889441155425
0.0579891432015717
0.0579893920577546
0.0579896906860859
0.0579900390803644
0.0579904372430294
0.0579908851816223
0.0579913828783469
0.0579919303331576
0.0579925275664731
0.0579931745600139
0.0579938714762681
0.0579946180953996
0.0579954140657
0.0579962600739008
0.0579971558333073
0.0579981013942822
0.0579990970637816
0.0579987184487408
0.057990917121103
0.0579662107835554
0.0579148844561333
0.0578273583745835
0.0576942194805681
0.0575059355694358
0.0572540451045767
0.0569298424404861
0.0565253337542091
0.056034326570813
0.0554503265445633
0.0547677568647165
0.0539832365056206
0.0530948955191521
0.0521004148756649
0.0510014076401835
0.049799267104153
0.0484977695061992
0.0471010773372633
0.0456232822372863
0.0440811250839076
0.0424956597515839
0.0408935211039358
0.0393012348852274
0.0377442992962982
0.0362490809836028
0.0348401305926537
0.0335414771604807
0.0323733558763738
0.0313496202424562
0.0304810450913548
0.0297697758621223
0.0292105662934071
0.0287929129563692
0.0285063035355659
0.0283426557218797
0.028294135790666
0.0283533721402804
0.0285139036637442
0.0287696255378297
0.0291145880661673
0.0295434609999369
0.0300506223388663
0.0306310273592673
0.0312808957686728
0.0319957239448135
0.0327700423277431
0.0335991722872605
0.0344788580103168
0.0354029625964265
0.0363651436063218
0.0373583403212991
0.0383776298934381
0.0394156496034522
0.0404664786212117
0.0415248996077932
0.0425863753709745
0.0436433312350908
0.0446917814051778
0.0457277259927278
0.046744873807183
0.0477390759039026
0.0487064148124991
0.0496419663422661
0.0505416719177771
0.0514034277124814
0.0522225748255328
0.0529964880973499
0.0537216699627955
0.0543950522885628
0.0550156067951506
0.0555806604965427
0.0560883807246728
0.056537140948468
0.0569260365216776
0.0572550462361371
0.0575235985535942
0.0577317111369329
0.0578803616235361
0.0579703650643955
0.0580094052030513
0.0580190455660063
0.0580195458266042
0.058018192785745
0.058016552607643
0.0580149181855836
0.0580133269796155
0.0580117849697829
0.0580102923851837
0.0580088493076018
0.0580074566201702
0.0580061126738133
0.0580048190913747
0.0580035749181441
0.0580023808690067
0.0580012366931309
0.058000141548355
0.0579990971040759
0.0579981014435683
0.0579971561338561
0.0579962600841353
0.057995414061775
0.0579946179308196
0.0579938713791497
0.0579931746226977
0.0579925275340695
0.0579919302661814
0.0579913830543673
0.0579908853480286
0.0579904373181128
0.0579900391319491
0.0579896906063912
0.057989392105186
0.0579891432952338
0.0579889441507406
0.0579887947847336
0.0579886952111075
0.057988645511428
0.0673756634390749
0.0673757212687396
0.0673758369252862
0.0673760104113504
0.0673762417247732
0.0673765308650576
0.0673768778343647
0.067377282625535
0.0673777452416734
0.0673782656910648
0.0673788439532797
0.0673794800283358
0.067380173940194
0.0673809256664626
0.0673817354005986
0.0673826028740939
0.067383527696683
0.0673845106534887
0.0673855514163027
0.0673866500412789
0.0673878068865189
0.0673873658373884
0.0673782974489051
0.0673495873041566
0.0672899536728446
0.0671882746296262
0.0670336246051059
0.0668149429799102
0.0665224107933479
0.066145938018353
0.0656762471674257
0.0651061646779343
0.0644281717457564
0.0636358052535274
0.0627251469545713
0.0616940427969345
0.0605398444717039
0.0592643635090748
0.0578693266657929
0.0563590238741599
0.0547384054039071
0.0530234660958343
0.0512337673459105
0.0493934263743938
0.0475332216584904
0.0456838750503776
0.0438749346752646
0.0421369084626393
0.0404983947799897
0.0389873145069588
0.0376274373606789
0.0364351522080261
0.0354231470223043
0.0345942854834593
0.0339425692922236
0.0334558491486186
0.033121805496468
0.0329309995379261
0.0328742850772287
0.0329430447307268
0.033129725068105
0.0334271875184735
0.0338284755683014
0.0343273617263981
0.034917261635127
0.0355923122330837
0.0363480810660429
0.0371793148256162
0.0380796034552443
0.0390435680074489
0.0400661599894184
0.0411403078707479
0.0422585286341095
0.0434127475801492
0.0445971355178977
0.0458032106891679
0.0470240542990408
0.0482536984501647
0.0494867779510512
0.0507145360046553
0.0519324176965003
0.0531356861590717
0.054317096999851
0.0554718231182283
0.0565953383982007
0.0576818773434398
0.0587268103842906
0.0597276393422667
0.060678969257376
0.0615777748608555
0.0624199555981056
0.0632019996451854
0.0639226854799989
0.0645789161351059
0.065168565612747
0.0656897442163164
0.0661414066395653
0.0665235266705538
0.0668354369353999
0.0670771615546615
0.0672498332182981
0.0673543972973582
0.0673997716969433
0.0674109819143011
0.0674115653564207
0.067409993708235
0.0674080880653336
0.067406189084976
0.0674043402923811
0.0674025486722079
0.0674008144698196
0.0673991377950262
0.0673975196569486
0.0673959581681593
0.0673944551717648
0.0673930096081219
0.0673916222577221
0.0673902928749402
0.0673890204498734
0.067387806928523
0.0673866501052636
0.0673855517583946
0.0673845106729701
0.0673835276868175
0.0673826026881574
0.0673817352835596
0.0673809257404111
0.0673801739028792
0.0673794799507737
0.067378844154461
0.0673782658861795
0.0673777453291434
0.0673772826856123
0.0673768777440893
0.0673765309168392
0.0673762418332518
0.0673760104533786
0.0673758369086104
0.06737572121661
0.0673756634681175
0.0772143198915303
0.0772143861658401
0.077214518711379
0.077214717531061
0.0772149826224389
0.0772153139850135
0.0772157116211328
0.0772161755226296
0.0772167056932844
0.0772173021421996
0.0772179648461663
0.0772186938052623
0.0772194890471428
0.0772203505451972
0.0772212785249714
0.0772222726679828
0.0772233325420934
0.0772244590365665
0.0772256517792939
0.077226910832687
0.0772282366083664
0.0772277301209951
0.0772173337088601
0.0771844271251406
0.0771160865151432
0.0769995736051843
0.0768223775575534
0.0765718358206633
0.0762367067153883
0.0758054492608124
0.0752674405589208
0.0746144787885042
0.0738379714390566
0.0729305264752765
0.0718876626086998
0.0707069280589284
0.0693853294828013
0.0679248863742093
0.0663276751920483
0.0645985242020996
0.0627432095920313
0.0607797205140308
0.0587305748244316
0.0566231000097284
0.0544924172353842
0.052373646066378
0.050300579047452
0.048308064031857
0.046428941543494
0.0446952110389673
0.0431343470245742
0.0417653962927375
0.0406030525254895
0.039650933626786
0.0389022537825405
0.0383431391535832
0.03795937585537
0.037740103292815
0.0376747995294366
0.0377535412522662
0.0379676299242282
0.0383088432396844
0.0387691691844517
0.0393414396669222
0.0400180614113357
0.0407923136414507
0.0416590801970205
0.0426123219556022
0.0436446429520768
0.0447499304764131
0.0459223049212469
0.0471537154096056
0.0484354832003093
0.0497584712526689
0.0511159001810692
0.0524981155806152
0.0538971526163781
0.0553062569527055
0.0567191953742007
0.058125972196476
0.059521436151752
0.0609000777655295
0.06225365370144
0.0635766260574357
0.0648638308241086
0.0661086206430587
0.0673057676079657
0.0684523601217677
0.0695422317712272
0.0705719379589699
0.0715367460664143
0.0724326793045482
0.0732583135651107
0.0740101075073635
0.0746856276924958
0.0752827085914934
0.0758001574754397
0.0762379428843525
0.0765952969881386
0.0768722506826268
0.0770700991615895
0.0771899243857181
0.0772419377953713
0.0772547933989364
0.0772554640256169
0.0772536632518356
0.0772514793725098
0.0772493031044061
0.0772471843325515
0.0772451310920892
0.0772431436471644
0.0772412221357898
0.0772393677004745
0.0772375782017177
0.0772358557168378
0.0772341990722814
0.07723260912128
0.0772310856200277
0.0772296273853037
0.0772282366525169
0.0772269109115451
0.0772256521654902
0.0772244590651395
0.0772233325264207
0.0772222724592433
0.0772212783873852
0.0772203506308651
0.0772194890046536
0.0772186937165853
0.0772179650739842
0.077217302367264
0.077216705793716
0.0772161755915977
0.0772157115195848
0.077215314041617
0.077214982746474
0.0772147175801598
0.0772145186933037
0.077214386107401
0.0772143199231255
0.0875263445504698
0.0875264196757267
0.0875265699228364
0.0875267952950158
0.0875270957895126
0.0875274714058177
0.0875279221464892
0.0875284480022992
0.0875290489777129
0.0875297250827311
0.0875304762912101
0.0875313026032849
0.0875322040504616
0.0875331806018088
0.0875342325160979
0.0875353594236084
0.0875365608467133
0.0875378377849403
0.0875391898197427
0.087540617020296
0.0875421198542196
0.0875415447798752
0.0875297564476989
0.0874924515233218
0.0874149850253497
0.0872829245727036
0.0870820977982646
0.0867981631592362
0.0864183878185839
0.0859297100580731
0.085320096848676
0.0845802686620213
0.0837005076528734
0.0826724481976553
0.0814910188944209
0.0801534559410567
0.0786564044218836
0.0770021017585115
0.075192991076789
0.0732344648153038
0.0711331649862458
0.0689091706672979
0.0665880985944872
0.064200640643234
0.0617864694084289
0.0593853135589612
0.0570354140159423
0.0547761669235112
0.0526448588313525
0.0506777636246524
0.0489062389850031
0.0473521179246627
0.046032196713283
0.0449508848091159
0.0441005715136626
0.0434655758599977
0.0430296983956505
0.0427805882907225
0.042706281587959
0.0427954860599945
0.0430383028012595
0.0434253734464676
0.0439475795200881
0.0445967669366095
0.0453642847706693
0.046242513260698
0.0472256195233048
0.048306740771454
0.0494774475781546
0.0507308583493273
0.0520602221587503
0.0534564618471048
0.0549096452224185
0.0564095221008064
0.0579483170058527
0.0595151466362013
0.0611009497442117
0.0626981478876822
0.0642995979261713
0.0658940057612398
0.0674755951884469
0.0690380468283832
0.0705720704265736
0.0720713830678189
0.0735301521851015
0.0749408060700604
0.0762974897891053
0.077596858366556
0.0788319368334732
0.0799988411131152
0.081092176064586
0.0821074776190389
0.0830431093001576
0.0838950640194428
0.0846605861072359
0.0853372209268976
0.0859236212378994
0.0864197500777845
0.0868247343191068
0.0871386119652299
0.0873628485247107
0.0874986691201092
0.087557640957177
0.0875722211136251
0.0875729831206241
0.0875709421968748
0.0875684666950874
0.0875659997972648
0.0875635980573355
0.0875612706087582
0.0875590177372704
0.0875568396091534
0.0875547375082084
0.0875527090282232
0.0875507564957213
0.0875488786134115
0.0875470763151447
0.0875453493550277
0.087543696370919
0.0875421199010072
0.0875406171141572
0.0875391902527882
0.0875378378223785
0.0875365608254186
0.0875353591905063
0.0875342323573445
0.0875331806996609
0.0875322040025199
0.0875313025029357
0.0875304765472367
0.0875297253390314